                                  USG-TRANSPORT USG-TRANSPORT 
       FURTHER  DEVELOPMENTS BASED ON MODFLOW-USG
                       VERSION USG-TRANSPORT VERSION 1.0.0

 LIST FILE: ../SVIHM_MF/SVIHM.lst
                         UNIT    7

 OPENING ../SVIHM_MF/SVIHM.bas
 FILE TYPE:BAS6   UNIT    1   STATUS:OLD    
 FORMAT:FORMATTED              ACCESS:SEQUENTIAL          

 OPENING ../SVIHM_MF/SVIHM.dis
 FILE TYPE:DIS   UNIT   29   STATUS:OLD    
 FORMAT:FORMATTED              ACCESS:SEQUENTIAL          
# DRNO 13 SVIHM.drno                                                                                                                                                                                                                                                                                        

 OPENING ../SVIHM_MF/SVIHM.upw
 FILE TYPE:UPW   UNIT   11   STATUS:OLD    
 FORMAT:FORMATTED              ACCESS:SEQUENTIAL          

 OPENING ../SVIHM_MF/SVIHM.zone
 FILE TYPE:ZONE   UNIT   40   STATUS:OLD    
 FORMAT:FORMATTED              ACCESS:SEQUENTIAL          
# HOB 81 SVIHM.hob                                                                                                                                                                                                                                                                                          

 OPENING ../SVIHM_MF/SVIHM.pvl
 FILE TYPE:PVAL   UNIT  503   STATUS:OLD    
 FORMAT:FORMATTED              ACCESS:SEQUENTIAL          
# SFR 82 SVIHM.sfr                                                                                                                                                                                                                                                                                          
# GAGE 83 SVIHM.gag                                                                                                                                                                                                                                                                                         
# WEL 12 SVIHM.wel                                                                                                                                                                                                                                                                                          
# ETS 20 SVIHM.ets                                                                                                                                                                                                                                                                                          
# RCH 18 SVIHM.rch                                                                                                                                                                                                                                                                                          
# OC  22 SVIHM.oc                                                                                                                                                                                                                                                                                           
# NWT 19 SVIHM.nwt                                                                                                                                                                                                                                                                                          

 OPENING ../SVIHM_MF/SVIHM.hds
 FILE TYPE:DATA(BINARY)   UNIT   30   STATUS:UNKNOWN
 FORMAT:BINARY                 ACCESS:SEQUENTIAL          

 OPENING ../SVIHM_MF/SVIHM.ddn
 FILE TYPE:DATA(BINARY)   UNIT   31   STATUS:UNKNOWN
 FORMAT:BINARY                 ACCESS:SEQUENTIAL          

 OPENING ../SVIHM_MF/SVIHM.cbb
 FILE TYPE:DATA(BINARY)   UNIT   50   STATUS:UNKNOWN
 FORMAT:BINARY                 ACCESS:SEQUENTIAL          
# DATA 101 Streamflow_Global.dat                                                                                                                                                                                                                                                                            
# DATA 400 Streamflow_FJ_SVIHM.dat                                                                                                                                                                                                                                                                          
# DATA 401 Streamflow_Farmers_Div_SVIHM.dat                                                                                                                                                                                                                                                                 
# DATA 402 Streamflow_SVID_Div_SVIHM.dat                                                                                                                                                                                                                                                                    
# DATA 403 Streamflow_BY_SVIHM.dat                                                                                                                                                                                                                                                                          
# DATA 404 Streamflow_AS_SVIHM.dat                                                                                                                                                                                                                                                                          
# DATA 405 Streamflow_LS_SVIHM.dat                                                                                                                                                                                                                                                                          
# DATA 406 Streamflow_BigSlough_SVIHM.dat                                                                                                                                                                                                                                                                   
# DATA 407 Streamflow_Pred_Loc_2.dat                                                                                                                                                                                                                                                                        
# DATA 408 Streamflow_Pred_Loc_3.dat                                                                                                                                                                                                                                                                        
# DATA 409 Streamflow_Pred_Loc_4.dat                                                                                                                                                                                                                                                                        
# DATA 410 Streamflow_Pred_Loc_5.dat                                                                                                                                                                                                                                                                        
# DATA 500 HobData_SVIHM.dat                                                                                                                                                                                                                                                                                
# Data 501 Reduced_Wells.dat                                                                                                                                                                                                                                                                                

 BAS -- BASIC PACKAGEUSG-TRANSPORT USG-TRANSPORT VERSION 1.0.0              INPUT READ FROM UNIT    1
 
 # MODFLOW2005 Basic Package                                                     
 #MODFLOW Data Set Created by Groundwater Vistas                                 
 #
 THE FREE FORMAT OPTION HAS BEEN SELECTED

 DIS -- UNSTRUCTURED GRID DISCRETIZATION PACKAGE, VERSION 1 : 5/17/2010 - INPUT READ FROM UNIT   29
 # DIS package for MODFLOW-NWT generated by Flopy 3.3.6
    2 LAYERS       440 ROWS       210 COLUMNS
  408 STRESS PERIOD(S) IN SIMULATION
 MODEL TIME UNIT IS DAYS
 MODEL LENGTH UNIT IS METERS
  Confining bed flag for each layer:
   0   0

 DIS -- UNSTRUCTURED GRID DISCRETIZATION PACKAGE, VERSION 1 : 5/17/2010 - INPUT READ FROM UNIT   29

                     DELR =   100.000    

                     DELC =   100.000    



           TOP ELEVATION OF LAYER 1
 READING ON UNIT   29 WITH FORMAT: (FREE)              



             MODEL LAYER BOTTOM EL. FOR LAYER   1
 READING ON UNIT   29 WITH FORMAT: (210E15.6)          



             MODEL LAYER BOTTOM EL. FOR LAYER   2
 READING ON UNIT   29 WITH FORMAT: (210E15.6)          


 STRESS PERIOD     LENGTH       TIME STEPS     MULTIPLIER FOR DELT    SS FLAG
 ----------------------------------------------------------------------------
        1         31.00000         31                    1.000         TR
        2         30.00000         30                    1.000         TR
        3         31.00000         31                    1.000         TR
        4         31.00000         31                    1.000         TR
        5         28.00000         28                    1.000         TR
        6         31.00000         31                    1.000         TR
        7         30.00000         30                    1.000         TR
        8         31.00000         31                    1.000         TR
        9         30.00000         30                    1.000         TR
       10         31.00000         31                    1.000         TR
       11         31.00000         31                    1.000         TR
       12         30.00000         30                    1.000         TR
       13         31.00000         31                    1.000         TR
       14         30.00000         30                    1.000         TR
       15         31.00000         31                    1.000         TR
       16         31.00000         31                    1.000         TR
       17         29.00000         29                    1.000         TR
       18         31.00000         31                    1.000         TR
       19         30.00000         30                    1.000         TR
       20         31.00000         31                    1.000         TR
       21         30.00000         30                    1.000         TR
       22         31.00000         31                    1.000         TR
       23         31.00000         31                    1.000         TR
       24         30.00000         30                    1.000         TR
       25         31.00000         31                    1.000         TR
       26         30.00000         30                    1.000         TR
       27         31.00000         31                    1.000         TR
       28         31.00000         31                    1.000         TR
       29         28.00000         28                    1.000         TR
       30         31.00000         31                    1.000         TR
       31         30.00000         30                    1.000         TR
       32         31.00000         31                    1.000         TR
       33         30.00000         30                    1.000         TR
       34         31.00000         31                    1.000         TR
       35         31.00000         31                    1.000         TR
       36         30.00000         30                    1.000         TR
       37         31.00000         31                    1.000         TR
       38         30.00000         30                    1.000         TR
       39         31.00000         31                    1.000         TR
       40         31.00000         31                    1.000         TR
       41         28.00000         28                    1.000         TR
       42         31.00000         31                    1.000         TR
       43         30.00000         30                    1.000         TR
       44         31.00000         31                    1.000         TR
       45         30.00000         30                    1.000         TR
       46         31.00000         31                    1.000         TR
       47         31.00000         31                    1.000         TR
       48         30.00000         30                    1.000         TR
       49         31.00000         31                    1.000         TR
       50         30.00000         30                    1.000         TR
       51         31.00000         31                    1.000         TR
       52         31.00000         31                    1.000         TR
       53         28.00000         28                    1.000         TR
       54         31.00000         31                    1.000         TR
       55         30.00000         30                    1.000         TR
       56         31.00000         31                    1.000         TR
       57         30.00000         30                    1.000         TR
       58         31.00000         31                    1.000         TR
       59         31.00000         31                    1.000         TR
       60         30.00000         30                    1.000         TR
       61         31.00000         31                    1.000         TR
       62         30.00000         30                    1.000         TR
       63         31.00000         31                    1.000         TR
       64         31.00000         31                    1.000         TR
       65         29.00000         29                    1.000         TR
       66         31.00000         31                    1.000         TR
       67         30.00000         30                    1.000         TR
       68         31.00000         31                    1.000         TR
       69         30.00000         30                    1.000         TR
       70         31.00000         31                    1.000         TR
       71         31.00000         31                    1.000         TR
       72         30.00000         30                    1.000         TR
       73         31.00000         31                    1.000         TR
       74         30.00000         30                    1.000         TR
       75         31.00000         31                    1.000         TR
       76         31.00000         31                    1.000         TR
       77         28.00000         28                    1.000         TR
       78         31.00000         31                    1.000         TR
       79         30.00000         30                    1.000         TR
       80         31.00000         31                    1.000         TR
       81         30.00000         30                    1.000         TR
       82         31.00000         31                    1.000         TR
       83         31.00000         31                    1.000         TR
       84         30.00000         30                    1.000         TR
       85         31.00000         31                    1.000         TR
       86         30.00000         30                    1.000         TR
       87         31.00000         31                    1.000         TR
       88         31.00000         31                    1.000         TR
       89         28.00000         28                    1.000         TR
       90         31.00000         31                    1.000         TR
       91         30.00000         30                    1.000         TR
       92         31.00000         31                    1.000         TR
       93         30.00000         30                    1.000         TR
       94         31.00000         31                    1.000         TR
       95         31.00000         31                    1.000         TR
       96         30.00000         30                    1.000         TR
       97         31.00000         31                    1.000         TR
       98         30.00000         30                    1.000         TR
       99         31.00000         31                    1.000         TR
      100         31.00000         31                    1.000         TR
      101         28.00000         28                    1.000         TR
      102         31.00000         31                    1.000         TR
      103         30.00000         30                    1.000         TR
      104         31.00000         31                    1.000         TR
      105         30.00000         30                    1.000         TR
      106         31.00000         31                    1.000         TR
      107         31.00000         31                    1.000         TR
      108         30.00000         30                    1.000         TR
      109         31.00000         31                    1.000         TR
      110         30.00000         30                    1.000         TR
      111         31.00000         31                    1.000         TR
      112         31.00000         31                    1.000         TR
      113         29.00000         29                    1.000         TR
      114         31.00000         31                    1.000         TR
      115         30.00000         30                    1.000         TR
      116         31.00000         31                    1.000         TR
      117         30.00000         30                    1.000         TR
      118         31.00000         31                    1.000         TR
      119         31.00000         31                    1.000         TR
      120         30.00000         30                    1.000         TR
      121         31.00000         31                    1.000         TR
      122         30.00000         30                    1.000         TR
      123         31.00000         31                    1.000         TR
      124         31.00000         31                    1.000         TR
      125         28.00000         28                    1.000         TR
      126         31.00000         31                    1.000         TR
      127         30.00000         30                    1.000         TR
      128         31.00000         31                    1.000         TR
      129         30.00000         30                    1.000         TR
      130         31.00000         31                    1.000         TR
      131         31.00000         31                    1.000         TR
      132         30.00000         30                    1.000         TR
      133         31.00000         31                    1.000         TR
      134         30.00000         30                    1.000         TR
      135         31.00000         31                    1.000         TR
      136         31.00000         31                    1.000         TR
      137         28.00000         28                    1.000         TR
      138         31.00000         31                    1.000         TR
      139         30.00000         30                    1.000         TR
      140         31.00000         31                    1.000         TR
      141         30.00000         30                    1.000         TR
      142         31.00000         31                    1.000         TR
      143         31.00000         31                    1.000         TR
      144         30.00000         30                    1.000         TR
      145         31.00000         31                    1.000         TR
      146         30.00000         30                    1.000         TR
      147         31.00000         31                    1.000         TR
      148         31.00000         31                    1.000         TR
      149         28.00000         28                    1.000         TR
      150         31.00000         31                    1.000         TR
      151         30.00000         30                    1.000         TR
      152         31.00000         31                    1.000         TR
      153         30.00000         30                    1.000         TR
      154         31.00000         31                    1.000         TR
      155         31.00000         31                    1.000         TR
      156         30.00000         30                    1.000         TR
      157         31.00000         31                    1.000         TR
      158         30.00000         30                    1.000         TR
      159         31.00000         31                    1.000         TR
      160         31.00000         31                    1.000         TR
      161         29.00000         29                    1.000         TR
      162         31.00000         31                    1.000         TR
      163         30.00000         30                    1.000         TR
      164         31.00000         31                    1.000         TR
      165         30.00000         30                    1.000         TR
      166         31.00000         31                    1.000         TR
      167         31.00000         31                    1.000         TR
      168         30.00000         30                    1.000         TR
      169         31.00000         31                    1.000         TR
      170         30.00000         30                    1.000         TR
      171         31.00000         31                    1.000         TR
      172         31.00000         31                    1.000         TR
      173         28.00000         28                    1.000         TR
      174         31.00000         31                    1.000         TR
      175         30.00000         30                    1.000         TR
      176         31.00000         31                    1.000         TR
      177         30.00000         30                    1.000         TR
      178         31.00000         31                    1.000         TR
      179         31.00000         31                    1.000         TR
      180         30.00000         30                    1.000         TR
      181         31.00000         31                    1.000         TR
      182         30.00000         30                    1.000         TR
      183         31.00000         31                    1.000         TR
      184         31.00000         31                    1.000         TR
      185         28.00000         28                    1.000         TR
      186         31.00000         31                    1.000         TR
      187         30.00000         30                    1.000         TR
      188         31.00000         31                    1.000         TR
      189         30.00000         30                    1.000         TR
      190         31.00000         31                    1.000         TR
      191         31.00000         31                    1.000         TR
      192         30.00000         30                    1.000         TR
      193         31.00000         31                    1.000         TR
      194         30.00000         30                    1.000         TR
      195         31.00000         31                    1.000         TR
      196         31.00000         31                    1.000         TR
      197         28.00000         28                    1.000         TR
      198         31.00000         31                    1.000         TR
      199         30.00000         30                    1.000         TR
      200         31.00000         31                    1.000         TR
      201         30.00000         30                    1.000         TR
      202         31.00000         31                    1.000         TR
      203         31.00000         31                    1.000         TR
      204         30.00000         30                    1.000         TR
      205         31.00000         31                    1.000         TR
      206         30.00000         30                    1.000         TR
      207         31.00000         31                    1.000         TR
      208         31.00000         31                    1.000         TR
      209         29.00000         29                    1.000         TR
      210         31.00000         31                    1.000         TR
      211         30.00000         30                    1.000         TR
      212         31.00000         31                    1.000         TR
      213         30.00000         30                    1.000         TR
      214         31.00000         31                    1.000         TR
      215         31.00000         31                    1.000         TR
      216         30.00000         30                    1.000         TR
      217         31.00000         31                    1.000         TR
      218         30.00000         30                    1.000         TR
      219         31.00000         31                    1.000         TR
      220         31.00000         31                    1.000         TR
      221         28.00000         28                    1.000         TR
      222         31.00000         31                    1.000         TR
      223         30.00000         30                    1.000         TR
      224         31.00000         31                    1.000         TR
      225         30.00000         30                    1.000         TR
      226         31.00000         31                    1.000         TR
      227         31.00000         31                    1.000         TR
      228         30.00000         30                    1.000         TR
      229         31.00000         31                    1.000         TR
      230         30.00000         30                    1.000         TR
      231         31.00000         31                    1.000         TR
      232         31.00000         31                    1.000         TR
      233         28.00000         28                    1.000         TR
      234         31.00000         31                    1.000         TR
      235         30.00000         30                    1.000         TR
      236         31.00000         31                    1.000         TR
      237         30.00000         30                    1.000         TR
      238         31.00000         31                    1.000         TR
      239         31.00000         31                    1.000         TR
      240         30.00000         30                    1.000         TR
      241         31.00000         31                    1.000         TR
      242         30.00000         30                    1.000         TR
      243         31.00000         31                    1.000         TR
      244         31.00000         31                    1.000         TR
      245         28.00000         28                    1.000         TR
      246         31.00000         31                    1.000         TR
      247         30.00000         30                    1.000         TR
      248         31.00000         31                    1.000         TR
      249         30.00000         30                    1.000         TR
      250         31.00000         31                    1.000         TR
      251         31.00000         31                    1.000         TR
      252         30.00000         30                    1.000         TR
      253         31.00000         31                    1.000         TR
      254         30.00000         30                    1.000         TR
      255         31.00000         31                    1.000         TR
      256         31.00000         31                    1.000         TR
      257         29.00000         29                    1.000         TR
      258         31.00000         31                    1.000         TR
      259         30.00000         30                    1.000         TR
      260         31.00000         31                    1.000         TR
      261         30.00000         30                    1.000         TR
      262         31.00000         31                    1.000         TR
      263         31.00000         31                    1.000         TR
      264         30.00000         30                    1.000         TR
      265         31.00000         31                    1.000         TR
      266         30.00000         30                    1.000         TR
      267         31.00000         31                    1.000         TR
      268         31.00000         31                    1.000         TR
      269         28.00000         28                    1.000         TR
      270         31.00000         31                    1.000         TR
      271         30.00000         30                    1.000         TR
      272         31.00000         31                    1.000         TR
      273         30.00000         30                    1.000         TR
      274         31.00000         31                    1.000         TR
      275         31.00000         31                    1.000         TR
      276         30.00000         30                    1.000         TR
      277         31.00000         31                    1.000         TR
      278         30.00000         30                    1.000         TR
      279         31.00000         31                    1.000         TR
      280         31.00000         31                    1.000         TR
      281         28.00000         28                    1.000         TR
      282         31.00000         31                    1.000         TR
      283         30.00000         30                    1.000         TR
      284         31.00000         31                    1.000         TR
      285         30.00000         30                    1.000         TR
      286         31.00000         31                    1.000         TR
      287         31.00000         31                    1.000         TR
      288         30.00000         30                    1.000         TR
      289         31.00000         31                    1.000         TR
      290         30.00000         30                    1.000         TR
      291         31.00000         31                    1.000         TR
      292         31.00000         31                    1.000         TR
      293         28.00000         28                    1.000         TR
      294         31.00000         31                    1.000         TR
      295         30.00000         30                    1.000         TR
      296         31.00000         31                    1.000         TR
      297         30.00000         30                    1.000         TR
      298         31.00000         31                    1.000         TR
      299         31.00000         31                    1.000         TR
      300         30.00000         30                    1.000         TR
      301         31.00000         31                    1.000         TR
      302         30.00000         30                    1.000         TR
      303         31.00000         31                    1.000         TR
      304         31.00000         31                    1.000         TR
      305         29.00000         29                    1.000         TR
      306         31.00000         31                    1.000         TR
      307         30.00000         30                    1.000         TR
      308         31.00000         31                    1.000         TR
      309         30.00000         30                    1.000         TR
      310         31.00000         31                    1.000         TR
      311         31.00000         31                    1.000         TR
      312         30.00000         30                    1.000         TR
      313         31.00000         31                    1.000         TR
      314         30.00000         30                    1.000         TR
      315         31.00000         31                    1.000         TR
      316         31.00000         31                    1.000         TR
      317         28.00000         28                    1.000         TR
      318         31.00000         31                    1.000         TR
      319         30.00000         30                    1.000         TR
      320         31.00000         31                    1.000         TR
      321         30.00000         30                    1.000         TR
      322         31.00000         31                    1.000         TR
      323         31.00000         31                    1.000         TR
      324         30.00000         30                    1.000         TR
      325         31.00000         31                    1.000         TR
      326         30.00000         30                    1.000         TR
      327         31.00000         31                    1.000         TR
      328         31.00000         31                    1.000         TR
      329         28.00000         28                    1.000         TR
      330         31.00000         31                    1.000         TR
      331         30.00000         30                    1.000         TR
      332         31.00000         31                    1.000         TR
      333         30.00000         30                    1.000         TR
      334         31.00000         31                    1.000         TR
      335         31.00000         31                    1.000         TR
      336         30.00000         30                    1.000         TR
      337         31.00000         31                    1.000         TR
      338         30.00000         30                    1.000         TR
      339         31.00000         31                    1.000         TR
      340         31.00000         31                    1.000         TR
      341         28.00000         28                    1.000         TR
      342         31.00000         31                    1.000         TR
      343         30.00000         30                    1.000         TR
      344         31.00000         31                    1.000         TR
      345         30.00000         30                    1.000         TR
      346         31.00000         31                    1.000         TR
      347         31.00000         31                    1.000         TR
      348         30.00000         30                    1.000         TR
      349         31.00000         31                    1.000         TR
      350         30.00000         30                    1.000         TR
      351         31.00000         31                    1.000         TR
      352         31.00000         31                    1.000         TR
      353         29.00000         29                    1.000         TR
      354         31.00000         31                    1.000         TR
      355         30.00000         30                    1.000         TR
      356         31.00000         31                    1.000         TR
      357         30.00000         30                    1.000         TR
      358         31.00000         31                    1.000         TR
      359         31.00000         31                    1.000         TR
      360         30.00000         30                    1.000         TR
      361         31.00000         31                    1.000         TR
      362         30.00000         30                    1.000         TR
      363         31.00000         31                    1.000         TR
      364         31.00000         31                    1.000         TR
      365         28.00000         28                    1.000         TR
      366         31.00000         31                    1.000         TR
      367         30.00000         30                    1.000         TR
      368         31.00000         31                    1.000         TR
      369         30.00000         30                    1.000         TR
      370         31.00000         31                    1.000         TR
      371         31.00000         31                    1.000         TR
      372         30.00000         30                    1.000         TR
      373         31.00000         31                    1.000         TR
      374         30.00000         30                    1.000         TR
      375         31.00000         31                    1.000         TR
      376         31.00000         31                    1.000         TR
      377         28.00000         28                    1.000         TR
      378         31.00000         31                    1.000         TR
      379         30.00000         30                    1.000         TR
      380         31.00000         31                    1.000         TR
      381         30.00000         30                    1.000         TR
      382         31.00000         31                    1.000         TR
      383         31.00000         31                    1.000         TR
      384         30.00000         30                    1.000         TR
      385         31.00000         31                    1.000         TR
      386         30.00000         30                    1.000         TR
      387         31.00000         31                    1.000         TR
      388         31.00000         31                    1.000         TR
      389         28.00000         28                    1.000         TR
      390         31.00000         31                    1.000         TR
      391         30.00000         30                    1.000         TR
      392         31.00000         31                    1.000         TR
      393         30.00000         30                    1.000         TR
      394         31.00000         31                    1.000         TR
      395         31.00000         31                    1.000         TR
      396         30.00000         30                    1.000         TR
      397         31.00000         31                    1.000         TR
      398         30.00000         30                    1.000         TR
      399         31.00000         31                    1.000         TR
      400         31.00000         31                    1.000         TR
      401         29.00000         29                    1.000         TR
      402         31.00000         31                    1.000         TR
      403         30.00000         30                    1.000         TR
      404         31.00000         31                    1.000         TR
      405         30.00000         30                    1.000         TR
      406         31.00000         31                    1.000         TR
      407         31.00000         31                    1.000         TR
      408         30.00000         30                    1.000         TR

 TRANSIENT SIMULATION






                     BOUNDARY ARRAY FOR LAYER   1
 READING ON UNIT    1 WITH FORMAT: (25I3)              



                     BOUNDARY ARRAY FOR LAYER   2
 READING ON UNIT    1 WITH FORMAT: (25I3)              

 AQUIFER HEAD WILL BE SET TO   9999.0     AT ALL NO-FLOW NODES (IBOUND=0).

 OPENING FILE ON UNIT   99:
 ../SVIHM_MF/Starting_Heads_L1.txt                                                                                                                                                                       



                       INITIAL HEAD FOR LAYER   1
 READING ON UNIT   99 WITH FORMAT: (FREE)              

 OPENING FILE ON UNIT   99:
 ../SVIHM_MF/Starting_Heads_L2.txt                                                                                                                                                                       



                       INITIAL HEAD FOR LAYER   2
 READING ON UNIT   99 WITH FORMAT: (FREE)              

 DEFAULT OUTPUT CONTROL
 THE FOLLOWING OUTPUT COMES AT THE END OF EACH STRESS PERIOD:
 TOTAL VOLUMETRIC BUDGET
           HEAD

 ZONE OPTION, INPUT READ FROM UNIT   40
 # MODFLOW2000 Zone File
 # Groundwater Vistas writes all zones regardless of whether
 # they are being used.  These zones include:
 #     kxzone##, kzzone##, szone##, rzone, and etzone, where
 #     ## is the layer number
   508 ZONE ARRAYS



             ZONE ARRAY: kxzone1   
 READING ON UNIT   40 WITH FORMAT: (50I3)              



             ZONE ARRAY: kxzone2   
 READING ON UNIT   40 WITH FORMAT: (50I3)              



             ZONE ARRAY: szone1    
 READING ON UNIT   40 WITH FORMAT: (50I3)              



             ZONE ARRAY: szone2    
 READING ON UNIT   40 WITH FORMAT: (50I3)              

   ZONE ARRAY: rzone1     =              1

   ZONE ARRAY: rzone2     =              1

   ZONE ARRAY: rzone3     =              1

   ZONE ARRAY: rzone4     =              1

   ZONE ARRAY: rzone5     =              1

   ZONE ARRAY: rzone6     =              1

   ZONE ARRAY: rzone7     =              1

   ZONE ARRAY: rzone8     =              1

   ZONE ARRAY: rzone9     =              1

   ZONE ARRAY: rzone10    =              1

   ZONE ARRAY: rzone11    =              1

   ZONE ARRAY: rzone12    =              1

   ZONE ARRAY: rzone13    =              1

   ZONE ARRAY: rzone14    =              1

   ZONE ARRAY: rzone15    =              1

   ZONE ARRAY: rzone16    =              1

   ZONE ARRAY: rzone17    =              1

   ZONE ARRAY: rzone18    =              1

   ZONE ARRAY: rzone19    =              1

   ZONE ARRAY: rzone20    =              1

   ZONE ARRAY: rzone21    =              1

   ZONE ARRAY: rzone22    =              1

   ZONE ARRAY: rzone23    =              1

   ZONE ARRAY: rzone24    =              1

   ZONE ARRAY: rzone25    =              1

   ZONE ARRAY: rzone26    =              1

   ZONE ARRAY: rzone27    =              1

   ZONE ARRAY: rzone28    =              1

   ZONE ARRAY: rzone29    =              1

   ZONE ARRAY: rzone30    =              1

   ZONE ARRAY: rzone31    =              1

   ZONE ARRAY: rzone32    =              1

   ZONE ARRAY: rzone33    =              1

   ZONE ARRAY: rzone34    =              1

   ZONE ARRAY: rzone35    =              1

   ZONE ARRAY: rzone36    =              1

   ZONE ARRAY: rzone37    =              1

   ZONE ARRAY: rzone38    =              1

   ZONE ARRAY: rzone39    =              1

   ZONE ARRAY: rzone40    =              1

   ZONE ARRAY: rzone41    =              1

   ZONE ARRAY: rzone42    =              1

   ZONE ARRAY: rzone43    =              1

   ZONE ARRAY: rzone44    =              1

   ZONE ARRAY: rzone45    =              1

   ZONE ARRAY: rzone46    =              1

   ZONE ARRAY: rzone47    =              1

   ZONE ARRAY: rzone48    =              1

   ZONE ARRAY: rzone49    =              1

   ZONE ARRAY: rzone50    =              1

   ZONE ARRAY: rzone51    =              1

   ZONE ARRAY: rzone52    =              1

   ZONE ARRAY: rzone53    =              1

   ZONE ARRAY: rzone54    =              1

   ZONE ARRAY: rzone55    =              1

   ZONE ARRAY: rzone56    =              1

   ZONE ARRAY: rzone57    =              1

   ZONE ARRAY: rzone58    =              1

   ZONE ARRAY: rzone59    =              1

   ZONE ARRAY: rzone60    =              1

   ZONE ARRAY: rzone61    =              1

   ZONE ARRAY: rzone62    =              1

   ZONE ARRAY: rzone63    =              1

   ZONE ARRAY: rzone64    =              1

   ZONE ARRAY: rzone65    =              1

   ZONE ARRAY: rzone66    =              1

   ZONE ARRAY: rzone67    =              1

   ZONE ARRAY: rzone68    =              1

   ZONE ARRAY: rzone69    =              1

   ZONE ARRAY: rzone70    =              1

   ZONE ARRAY: rzone71    =              1

   ZONE ARRAY: rzone72    =              1

   ZONE ARRAY: rzone73    =              1

   ZONE ARRAY: rzone74    =              1

   ZONE ARRAY: rzone75    =              1

   ZONE ARRAY: rzone76    =              1

   ZONE ARRAY: rzone77    =              1

   ZONE ARRAY: rzone78    =              1

   ZONE ARRAY: rzone79    =              1

   ZONE ARRAY: rzone80    =              1

   ZONE ARRAY: rzone81    =              1

   ZONE ARRAY: rzone82    =              1

   ZONE ARRAY: rzone83    =              1

   ZONE ARRAY: rzone84    =              1

   ZONE ARRAY: rzone85    =              1

   ZONE ARRAY: rzone86    =              1

   ZONE ARRAY: rzone87    =              1

   ZONE ARRAY: rzone88    =              1

   ZONE ARRAY: rzone89    =              1

   ZONE ARRAY: rzone90    =              1

   ZONE ARRAY: rzone91    =              1

   ZONE ARRAY: rzone92    =              1

   ZONE ARRAY: rzone93    =              1

   ZONE ARRAY: rzone94    =              1

   ZONE ARRAY: rzone95    =              1

   ZONE ARRAY: rzone96    =              1

   ZONE ARRAY: rzone97    =              1

   ZONE ARRAY: rzone98    =              1

   ZONE ARRAY: rzone99    =              1

   ZONE ARRAY: rzone100   =              1

   ZONE ARRAY: rzone101   =              1

   ZONE ARRAY: rzone102   =              1

   ZONE ARRAY: rzone103   =              1

   ZONE ARRAY: rzone104   =              1

   ZONE ARRAY: rzone105   =              1

   ZONE ARRAY: rzone106   =              1

   ZONE ARRAY: rzone107   =              1

   ZONE ARRAY: rzone108   =              1

   ZONE ARRAY: rzone109   =              1

   ZONE ARRAY: rzone110   =              1

   ZONE ARRAY: rzone111   =              1

   ZONE ARRAY: rzone112   =              1

   ZONE ARRAY: rzone113   =              1

   ZONE ARRAY: rzone114   =              1

   ZONE ARRAY: rzone115   =              1

   ZONE ARRAY: rzone116   =              1

   ZONE ARRAY: rzone117   =              1

   ZONE ARRAY: rzone118   =              1

   ZONE ARRAY: rzone119   =              1

   ZONE ARRAY: rzone120   =              1

   ZONE ARRAY: rzone121   =              1

   ZONE ARRAY: rzone122   =              1

   ZONE ARRAY: rzone123   =              1

   ZONE ARRAY: rzone124   =              1

   ZONE ARRAY: rzone125   =              1

   ZONE ARRAY: rzone126   =              1

   ZONE ARRAY: rzone127   =              1

   ZONE ARRAY: rzone128   =              1

   ZONE ARRAY: rzone129   =              1

   ZONE ARRAY: rzone130   =              1

   ZONE ARRAY: rzone131   =              1

   ZONE ARRAY: rzone132   =              1

   ZONE ARRAY: rzone133   =              1

   ZONE ARRAY: rzone134   =              1

   ZONE ARRAY: rzone135   =              1

   ZONE ARRAY: rzone136   =              1

   ZONE ARRAY: rzone137   =              1

   ZONE ARRAY: rzone138   =              1

   ZONE ARRAY: rzone139   =              1

   ZONE ARRAY: rzone140   =              1

   ZONE ARRAY: rzone141   =              1

   ZONE ARRAY: rzone142   =              1

   ZONE ARRAY: rzone143   =              1

   ZONE ARRAY: rzone144   =              1

   ZONE ARRAY: rzone145   =              1

   ZONE ARRAY: rzone146   =              1

   ZONE ARRAY: rzone147   =              1

   ZONE ARRAY: rzone148   =              1

   ZONE ARRAY: rzone149   =              1

   ZONE ARRAY: rzone150   =              1

   ZONE ARRAY: rzone151   =              1

   ZONE ARRAY: rzone152   =              1

   ZONE ARRAY: rzone153   =              1

   ZONE ARRAY: rzone154   =              1

   ZONE ARRAY: rzone155   =              1

   ZONE ARRAY: rzone156   =              1

   ZONE ARRAY: rzone157   =              1

   ZONE ARRAY: rzone158   =              1

   ZONE ARRAY: rzone159   =              1

   ZONE ARRAY: rzone160   =              1

   ZONE ARRAY: rzone161   =              1

   ZONE ARRAY: rzone162   =              1

   ZONE ARRAY: rzone163   =              1

   ZONE ARRAY: rzone164   =              1

   ZONE ARRAY: rzone165   =              1

   ZONE ARRAY: rzone166   =              1

   ZONE ARRAY: rzone167   =              1

   ZONE ARRAY: rzone168   =              1

   ZONE ARRAY: rzone169   =              1

   ZONE ARRAY: rzone170   =              1

   ZONE ARRAY: rzone171   =              1

   ZONE ARRAY: rzone172   =              1

   ZONE ARRAY: rzone173   =              1

   ZONE ARRAY: rzone174   =              1

   ZONE ARRAY: rzone175   =              1

   ZONE ARRAY: rzone176   =              1

   ZONE ARRAY: rzone177   =              1

   ZONE ARRAY: rzone178   =              1

   ZONE ARRAY: rzone179   =              1

   ZONE ARRAY: rzone180   =              1

   ZONE ARRAY: rzone181   =              1

   ZONE ARRAY: rzone182   =              1

   ZONE ARRAY: rzone183   =              1

   ZONE ARRAY: rzone184   =              1

   ZONE ARRAY: rzone185   =              1

   ZONE ARRAY: rzone186   =              1

   ZONE ARRAY: rzone187   =              1

   ZONE ARRAY: rzone188   =              1

   ZONE ARRAY: rzone189   =              1

   ZONE ARRAY: rzone190   =              1

   ZONE ARRAY: rzone191   =              1

   ZONE ARRAY: rzone192   =              1

   ZONE ARRAY: rzone193   =              1

   ZONE ARRAY: rzone194   =              1

   ZONE ARRAY: rzone195   =              1

   ZONE ARRAY: rzone196   =              1

   ZONE ARRAY: rzone197   =              1

   ZONE ARRAY: rzone198   =              1

   ZONE ARRAY: rzone199   =              1

   ZONE ARRAY: rzone200   =              1

   ZONE ARRAY: rzone201   =              1

   ZONE ARRAY: rzone202   =              1

   ZONE ARRAY: rzone203   =              1

   ZONE ARRAY: rzone204   =              1

   ZONE ARRAY: rzone205   =              1

   ZONE ARRAY: rzone206   =              1

   ZONE ARRAY: rzone207   =              1

   ZONE ARRAY: rzone208   =              1

   ZONE ARRAY: rzone209   =              1

   ZONE ARRAY: rzone210   =              1

   ZONE ARRAY: rzone211   =              1

   ZONE ARRAY: rzone212   =              1

   ZONE ARRAY: rzone213   =              1

   ZONE ARRAY: rzone214   =              1

   ZONE ARRAY: rzone215   =              1

   ZONE ARRAY: rzone216   =              1

   ZONE ARRAY: rzone217   =              1

   ZONE ARRAY: rzone218   =              1

   ZONE ARRAY: rzone219   =              1

   ZONE ARRAY: rzone220   =              1

   ZONE ARRAY: rzone221   =              1

   ZONE ARRAY: rzone222   =              1

   ZONE ARRAY: rzone223   =              1

   ZONE ARRAY: rzone224   =              1

   ZONE ARRAY: rzone225   =              1

   ZONE ARRAY: rzone226   =              1

   ZONE ARRAY: rzone227   =              1

   ZONE ARRAY: rzone228   =              1

   ZONE ARRAY: rzone229   =              1

   ZONE ARRAY: rzone230   =              1

   ZONE ARRAY: rzone231   =              1

   ZONE ARRAY: rzone232   =              1

   ZONE ARRAY: rzone233   =              1

   ZONE ARRAY: rzone234   =              1

   ZONE ARRAY: rzone235   =              1

   ZONE ARRAY: rzone236   =              1

   ZONE ARRAY: rzone237   =              1

   ZONE ARRAY: rzone238   =              1

   ZONE ARRAY: rzone239   =              1

   ZONE ARRAY: rzone240   =              1

   ZONE ARRAY: rzone241   =              1

   ZONE ARRAY: rzone242   =              1

   ZONE ARRAY: rzone243   =              1

   ZONE ARRAY: rzone244   =              1

   ZONE ARRAY: rzone245   =              1

   ZONE ARRAY: rzone246   =              1

   ZONE ARRAY: rzone247   =              1

   ZONE ARRAY: rzone248   =              1

   ZONE ARRAY: rzone249   =              1

   ZONE ARRAY: rzone250   =              1

   ZONE ARRAY: rzone251   =              1

   ZONE ARRAY: rzone252   =              1

   ZONE ARRAY: etzone1    =              1

   ZONE ARRAY: etzone2    =              1

   ZONE ARRAY: etzone3    =              1

   ZONE ARRAY: etzone4    =              1

   ZONE ARRAY: etzone5    =              1

   ZONE ARRAY: etzone6    =              1

   ZONE ARRAY: etzone7    =              1

   ZONE ARRAY: etzone8    =              1

   ZONE ARRAY: etzone9    =              1

   ZONE ARRAY: etzone10   =              1

   ZONE ARRAY: etzone11   =              1

   ZONE ARRAY: etzone12   =              1

   ZONE ARRAY: etzone13   =              1

   ZONE ARRAY: etzone14   =              1

   ZONE ARRAY: etzone15   =              1

   ZONE ARRAY: etzone16   =              1

   ZONE ARRAY: etzone17   =              1

   ZONE ARRAY: etzone18   =              1

   ZONE ARRAY: etzone19   =              1

   ZONE ARRAY: etzone20   =              1

   ZONE ARRAY: etzone21   =              1

   ZONE ARRAY: etzone22   =              1

   ZONE ARRAY: etzone23   =              1

   ZONE ARRAY: etzone24   =              1

   ZONE ARRAY: etzone25   =              1

   ZONE ARRAY: etzone26   =              1

   ZONE ARRAY: etzone27   =              1

   ZONE ARRAY: etzone28   =              1

   ZONE ARRAY: etzone29   =              1

   ZONE ARRAY: etzone30   =              1

   ZONE ARRAY: etzone31   =              1

   ZONE ARRAY: etzone32   =              1

   ZONE ARRAY: etzone33   =              1

   ZONE ARRAY: etzone34   =              1

   ZONE ARRAY: etzone35   =              1

   ZONE ARRAY: etzone36   =              1

   ZONE ARRAY: etzone37   =              1

   ZONE ARRAY: etzone38   =              1

   ZONE ARRAY: etzone39   =              1

   ZONE ARRAY: etzone40   =              1

   ZONE ARRAY: etzone41   =              1

   ZONE ARRAY: etzone42   =              1

   ZONE ARRAY: etzone43   =              1

   ZONE ARRAY: etzone44   =              1

   ZONE ARRAY: etzone45   =              1

   ZONE ARRAY: etzone46   =              1

   ZONE ARRAY: etzone47   =              1

   ZONE ARRAY: etzone48   =              1

   ZONE ARRAY: etzone49   =              1

   ZONE ARRAY: etzone50   =              1

   ZONE ARRAY: etzone51   =              1

   ZONE ARRAY: etzone52   =              1

   ZONE ARRAY: etzone53   =              1

   ZONE ARRAY: etzone54   =              1

   ZONE ARRAY: etzone55   =              1

   ZONE ARRAY: etzone56   =              1

   ZONE ARRAY: etzone57   =              1

   ZONE ARRAY: etzone58   =              1

   ZONE ARRAY: etzone59   =              1

   ZONE ARRAY: etzone60   =              1

   ZONE ARRAY: etzone61   =              1

   ZONE ARRAY: etzone62   =              1

   ZONE ARRAY: etzone63   =              1

   ZONE ARRAY: etzone64   =              1

   ZONE ARRAY: etzone65   =              1

   ZONE ARRAY: etzone66   =              1

   ZONE ARRAY: etzone67   =              1

   ZONE ARRAY: etzone68   =              1

   ZONE ARRAY: etzone69   =              1

   ZONE ARRAY: etzone70   =              1

   ZONE ARRAY: etzone71   =              1

   ZONE ARRAY: etzone72   =              1

   ZONE ARRAY: etzone73   =              1

   ZONE ARRAY: etzone74   =              1

   ZONE ARRAY: etzone75   =              1

   ZONE ARRAY: etzone76   =              1

   ZONE ARRAY: etzone77   =              1

   ZONE ARRAY: etzone78   =              1

   ZONE ARRAY: etzone79   =              1

   ZONE ARRAY: etzone80   =              1

   ZONE ARRAY: etzone81   =              1

   ZONE ARRAY: etzone82   =              1

   ZONE ARRAY: etzone83   =              1

   ZONE ARRAY: etzone84   =              1

   ZONE ARRAY: etzone85   =              1

   ZONE ARRAY: etzone86   =              1

   ZONE ARRAY: etzone87   =              1

   ZONE ARRAY: etzone88   =              1

   ZONE ARRAY: etzone89   =              1

   ZONE ARRAY: etzone90   =              1

   ZONE ARRAY: etzone91   =              1

   ZONE ARRAY: etzone92   =              1

   ZONE ARRAY: etzone93   =              1

   ZONE ARRAY: etzone94   =              1

   ZONE ARRAY: etzone95   =              1

   ZONE ARRAY: etzone96   =              1

   ZONE ARRAY: etzone97   =              1

   ZONE ARRAY: etzone98   =              1

   ZONE ARRAY: etzone99   =              1

   ZONE ARRAY: etzone100  =              1

   ZONE ARRAY: etzone101  =              1

   ZONE ARRAY: etzone102  =              1

   ZONE ARRAY: etzone103  =              1

   ZONE ARRAY: etzone104  =              1

   ZONE ARRAY: etzone105  =              1

   ZONE ARRAY: etzone106  =              1

   ZONE ARRAY: etzone107  =              1

   ZONE ARRAY: etzone108  =              1

   ZONE ARRAY: etzone109  =              1

   ZONE ARRAY: etzone110  =              1

   ZONE ARRAY: etzone111  =              1

   ZONE ARRAY: etzone112  =              1

   ZONE ARRAY: etzone113  =              1

   ZONE ARRAY: etzone114  =              1

   ZONE ARRAY: etzone115  =              1

   ZONE ARRAY: etzone116  =              1

   ZONE ARRAY: etzone117  =              1

   ZONE ARRAY: etzone118  =              1

   ZONE ARRAY: etzone119  =              1

   ZONE ARRAY: etzone120  =              1

   ZONE ARRAY: etzone121  =              1

   ZONE ARRAY: etzone122  =              1

   ZONE ARRAY: etzone123  =              1

   ZONE ARRAY: etzone124  =              1

   ZONE ARRAY: etzone125  =              1

   ZONE ARRAY: etzone126  =              1

   ZONE ARRAY: etzone127  =              1

   ZONE ARRAY: etzone128  =              1

   ZONE ARRAY: etzone129  =              1

   ZONE ARRAY: etzone130  =              1

   ZONE ARRAY: etzone131  =              1

   ZONE ARRAY: etzone132  =              1

   ZONE ARRAY: etzone133  =              1

   ZONE ARRAY: etzone134  =              1

   ZONE ARRAY: etzone135  =              1

   ZONE ARRAY: etzone136  =              1

   ZONE ARRAY: etzone137  =              1

   ZONE ARRAY: etzone138  =              1

   ZONE ARRAY: etzone139  =              1

   ZONE ARRAY: etzone140  =              1

   ZONE ARRAY: etzone141  =              1

   ZONE ARRAY: etzone142  =              1

   ZONE ARRAY: etzone143  =              1

   ZONE ARRAY: etzone144  =              1

   ZONE ARRAY: etzone145  =              1

   ZONE ARRAY: etzone146  =              1

   ZONE ARRAY: etzone147  =              1

   ZONE ARRAY: etzone148  =              1

   ZONE ARRAY: etzone149  =              1

   ZONE ARRAY: etzone150  =              1

   ZONE ARRAY: etzone151  =              1

   ZONE ARRAY: etzone152  =              1

   ZONE ARRAY: etzone153  =              1

   ZONE ARRAY: etzone154  =              1

   ZONE ARRAY: etzone155  =              1

   ZONE ARRAY: etzone156  =              1

   ZONE ARRAY: etzone157  =              1

   ZONE ARRAY: etzone158  =              1

   ZONE ARRAY: etzone159  =              1

   ZONE ARRAY: etzone160  =              1

   ZONE ARRAY: etzone161  =              1

   ZONE ARRAY: etzone162  =              1

   ZONE ARRAY: etzone163  =              1

   ZONE ARRAY: etzone164  =              1

   ZONE ARRAY: etzone165  =              1

   ZONE ARRAY: etzone166  =              1

   ZONE ARRAY: etzone167  =              1

   ZONE ARRAY: etzone168  =              1

   ZONE ARRAY: etzone169  =              1

   ZONE ARRAY: etzone170  =              1

   ZONE ARRAY: etzone171  =              1

   ZONE ARRAY: etzone172  =              1

   ZONE ARRAY: etzone173  =              1

   ZONE ARRAY: etzone174  =              1

   ZONE ARRAY: etzone175  =              1

   ZONE ARRAY: etzone176  =              1

   ZONE ARRAY: etzone177  =              1

   ZONE ARRAY: etzone178  =              1

   ZONE ARRAY: etzone179  =              1

   ZONE ARRAY: etzone180  =              1

   ZONE ARRAY: etzone181  =              1

   ZONE ARRAY: etzone182  =              1

   ZONE ARRAY: etzone183  =              1

   ZONE ARRAY: etzone184  =              1

   ZONE ARRAY: etzone185  =              1

   ZONE ARRAY: etzone186  =              1

   ZONE ARRAY: etzone187  =              1

   ZONE ARRAY: etzone188  =              1

   ZONE ARRAY: etzone189  =              1

   ZONE ARRAY: etzone190  =              1

   ZONE ARRAY: etzone191  =              1

   ZONE ARRAY: etzone192  =              1

   ZONE ARRAY: etzone193  =              1

   ZONE ARRAY: etzone194  =              1

   ZONE ARRAY: etzone195  =              1

   ZONE ARRAY: etzone196  =              1

   ZONE ARRAY: etzone197  =              1

   ZONE ARRAY: etzone198  =              1

   ZONE ARRAY: etzone199  =              1

   ZONE ARRAY: etzone200  =              1

   ZONE ARRAY: etzone201  =              1

   ZONE ARRAY: etzone202  =              1

   ZONE ARRAY: etzone203  =              1

   ZONE ARRAY: etzone204  =              1

   ZONE ARRAY: etzone205  =              1

   ZONE ARRAY: etzone206  =              1

   ZONE ARRAY: etzone207  =              1

   ZONE ARRAY: etzone208  =              1

   ZONE ARRAY: etzone209  =              1

   ZONE ARRAY: etzone210  =              1

   ZONE ARRAY: etzone211  =              1

   ZONE ARRAY: etzone212  =              1

   ZONE ARRAY: etzone213  =              1

   ZONE ARRAY: etzone214  =              1

   ZONE ARRAY: etzone215  =              1

   ZONE ARRAY: etzone216  =              1

   ZONE ARRAY: etzone217  =              1

   ZONE ARRAY: etzone218  =              1

   ZONE ARRAY: etzone219  =              1

   ZONE ARRAY: etzone220  =              1

   ZONE ARRAY: etzone221  =              1

   ZONE ARRAY: etzone222  =              1

   ZONE ARRAY: etzone223  =              1

   ZONE ARRAY: etzone224  =              1

   ZONE ARRAY: etzone225  =              1

   ZONE ARRAY: etzone226  =              1

   ZONE ARRAY: etzone227  =              1

   ZONE ARRAY: etzone228  =              1

   ZONE ARRAY: etzone229  =              1

   ZONE ARRAY: etzone230  =              1

   ZONE ARRAY: etzone231  =              1

   ZONE ARRAY: etzone232  =              1

   ZONE ARRAY: etzone233  =              1

   ZONE ARRAY: etzone234  =              1

   ZONE ARRAY: etzone235  =              1

   ZONE ARRAY: etzone236  =              1

   ZONE ARRAY: etzone237  =              1

   ZONE ARRAY: etzone238  =              1

   ZONE ARRAY: etzone239  =              1

   ZONE ARRAY: etzone240  =              1

   ZONE ARRAY: etzone241  =              1

   ZONE ARRAY: etzone242  =              1

   ZONE ARRAY: etzone243  =              1

   ZONE ARRAY: etzone244  =              1

   ZONE ARRAY: etzone245  =              1

   ZONE ARRAY: etzone246  =              1

   ZONE ARRAY: etzone247  =              1

   ZONE ARRAY: etzone248  =              1

   ZONE ARRAY: etzone249  =              1

   ZONE ARRAY: etzone250  =              1

   ZONE ARRAY: etzone251  =              1

   ZONE ARRAY: etzone252  =              1

 PARAMETER VALUE INPUT FILE,  INPUT READ FROM UNIT  503
 # MODFLOW Parameter Value File

 NUMBER OF PARAMETER VALUES TO BE READ FROM PARAMETER VALUE FILE:   43

 INFORMATION ON PARAMETERS LISTED IN PARAMETER FILE
               VALUE IN
    NAME     PARAMETER FILE
 ----------  --------------
 kx1           194.00    
 kx2           7.4400    
 kx3           10.300    
 kx4           15.900    
 kx5           10.000    
 kx6           30.000    
 kx7           1000.0    
 kx8           30.000    
 kx9           60.000    
 kvar1         100.00    
 kvar2         100.00    
 kvar3         100.00    
 kvar4         100.00    
 kvar5         100.00    
 kvar6         100.00    
 kvar7         1.0000    
 kvar8         100.00    
 kvar9         100.00    
 sy1          0.12900    
 sy2          0.15000    
 sy3          0.47900E-01
 sy4          0.10000    
 sy5          0.15000    
 sy6          0.15000    
 sy7          0.30000    
 sy8          0.15000    
 sy9          0.15000    
 ss1          0.10000E-04
 ss2          0.10000E-04
 ss3          0.10000E-04
 ss4          0.10000E-04
 ss5          0.10000E-04
 ss6          0.10000E-04
 ss7          0.10000E-04
 ss8          0.10000E-04
 ss9          0.10000E-04
 MFR5          2.0000    
 MFR6          60.000    
 MFR7          70.000    
 MFR8          150.00    
 MFR9          5.0000    
 MFR10         20.000    
 MFR11         90.000    
 -----------------------------------------------------------------------------
 FOR THE PARAMETERS LISTED IN THE TABLE ABOVE, PARAMETER VALUES IN INDIVIDUAL
 PACKAGE INPUT FILES ARE REPLACED BY THE VALUES FROM THE PARAMETER INPUT FILE.
