    _________   _______  ________
--|\___   ___\/  ___  \|\   __  \ ----
   \|___ \  \_/__/|_/  /\ \  \|\  \
------- \ \  \|__|//  / /\ \   ____\----
         \ \  \   /  /_/__\ \  \___|
--------- \ \__\ |\________\ \__\ --------
           \|__|  \|_______|\|__|
 
             Texture2Par v2.0.0
----------------------------------------------
Copyright S.S. Papadopulos & Associates Inc.
 
Started at: 2025-06-25 11:05:22
Reading Input Files
Opening file svihm.t2p for reading.
Opening file logs_and_AEM_5classes.dat for reading.
 
Elapsed time:  0 seconds.
 
--- INPUT SUMMARY ---
 Total Data Classes:                          5
 Texture Data Classes:                        5
 Covariate Data Classes:                      0
 Number of Dataset Files:                     1
 Number of HSUs:                              1
 Number of Variograms:                        6
 Number of Model Cells (All Layers)      184800
 Number of Model Layers                       2
 Number of Pilot Point Zones                  1
 Number of Aquifer Pilot Points               1
 Max Variogram Structures:                    1
 No Data Value:                         -999.00
 IDW Power Value:                          2.00
 Max Secondary Data Dist:                  0.00
 Max Outside Bounds Dist:                500.00
 Interpolation Dimensions:                    2
 Interpolation Method:                 Ordinary Kriging (OK)
 Interpolation Order:                  BEFORE
 Logical Options Set to TRUE:          READ_GRID_WEIGHTS,USE_MODEL_GSE,
Interpolating Pilot Point Parameters to MODFLOW Grid
  - Array:            1
Interpolating Datasets to MODFLOW Grid
  - Layer:            1
Opening file t2p_grdweights_arr1_obs1.wts for reading.
Opening file t2p_grdweights_arr1_obs2.wts for reading.
Opening file t2p_grdweights_arr1_obs3.wts for reading.
Opening file t2p_grdweights_arr1_obs4.wts for reading.
Opening file t2p_grdweights_arr1_obs5.wts for reading.
  - Layer:            2
Opening file t2p_grdweights_arr2_obs1.wts for reading.
Opening file t2p_grdweights_arr2_obs2.wts for reading.
Opening file t2p_grdweights_arr2_obs3.wts for reading.
Opening file t2p_grdweights_arr2_obs4.wts for reading.
Opening file t2p_grdweights_arr2_obs5.wts for reading.
Calculating Hydraulic Parameters
  - Layer:            1
  - Layer:            2
Calculations finished!
Writing output files
  Writing Parameter Node Files
  Writing MODFLOW Input Files
Opening file SVIHM_TEMPLATE.upw for reading.
Opening file c:\Users\lelan\Documents\ModelRuns\SVIHM\2025_t2p_calibration\12_init_itermix\SVIHM\MODFLOW\SVIHM.upw for writing.
  Done Writing.
 
Elapsed time:  1 seconds.
Texture2Par Normal Termination
