    _________   _______  ________
--|\___   ___\/  ___  \|\   __  \ ----
   \|___ \  \_/__/|_/  /\ \  \|\  \
------- \ \  \|__|//  / /\ \   ____\----
         \ \  \   /  /_/__\ \  \___|
--------- \ \__\ |\________\ \__\ --------
           \|__|  \|_______|\|__|
 
             Texture2Par v2.0.0
----------------------------------------------
Copyright S.S. Papadopulos & Associates Inc.
 
Started at: 2025-04-28 17:13:01
Reading Input Files
Opening file svihm.t2p for reading.
Opening file logs_and_AEM_5classes.dat for reading.
 
Elapsed time:  0 seconds.
 
--- INPUT SUMMARY ---
 Total Data Classes:                          5
 Texture Data Classes:                        5
 Covariate Data Classes:                      0
 Number of Dataset Files:                     1
 Number of HSUs:                              1
 Number of Variograms:                        5
 Number of Model Cells (All Layers)       92400
 Number of Model Layers                       1
 Max Variogram Structures:                    1
 No Data Value:                         -999.00
 IDW Power Value:                          2.00
 Max Secondary Data Dist:                  0.00
 Max Outside Bounds Dist:                500.00
 Interpolation Dimensions:                    2
 Interpolation Method:                 Ordinary Kriging (OK)
 Interpolation Order:                  BEFORE
 Logical Options Set to TRUE:          ONLY_TEXTURE,WRITE_NONE,WRITE_NODE_FILES,WRITE_DATASET_FILES,USE_MODEL_GSE,
Interpolating Datasets to MODFLOW Grid
  - Layer:            1
Writing output files
  Writing Class Node Files
  Writing Layer-Averaged Dataset File(s)
  Done Writing.
 
Elapsed time:  6 seconds.
Texture2Par Normal Termination
